*******************************************************************
* Model name       : 1N5819
* Description      : Power Schottky rectifier 40 V, 1 A
* Package type     : DO-41
* Manufacturer     : ST
*******************************************************************
.MODEL 1N5819 D IS=571.16E-9 N=.99391 RS=62.271E-3 IKF=999
+ EG=.69 XTI=2 CJO=231.90E-12 M=.49991 VJ=.40928 ISR=790.52E-9
+ FC=0.5 NR=4.9950 TT=0