* from https://www.diyaudio.com/forums/solid-state/252973-2sk170-2sj74-spice-model-pass-0-4ma.html
*2SJ74
*Toshiba Dep-Mode 20mA 400mW LowNoise pkg:TO-92B 2,1,3
.MODEL 2SJ74 PJF(Beta=92.12m Rs=7.748 Rd=7.748 Lambda=4.464m
+Vto=-.5428 Cgd=85.67p Pb=.3905 Fc=.5
+Cgs=78.27p Is=12.98p
+Kf=26.64E-18 Af=1)
