* from https://www.diyaudio.com/forums/solid-state/252973-2sk170-2sj74-spice-model-pass-0-4ma.html
*2SK170
* 20mA 400mW LowNoise Dep-Mode pkg:TO-92B 3,1,2
.MODEL 2SK170 NJF(Beta=59.86m Rs=4.151 Rd=4.151 Lambda=1.923m
+Vto=-.5024 Cgd=20p Pb=.4746 Fc=.5
+Cgs=25.48p Is=8.477p
+Kf=111.3E-18 Af=1)