.model D1N4002 D (IS=1.34e-14 RS=0.055 N=1.985 TT=4.32e-6 CJO=1.74e-11 VJ=0.75 M=0.33 EG=1.11)
