* LED Red Orange
* SnapLED150 Red Orange (A1SS-O612)
.model A1SS-O612_VFBIN_D D(IS=1.601E-18 N=1.989E+00 RS=3.201E+00 XTI=9.456E+00 EG=2.062E+00 TRS1=-6.313E-03 TRS2=3.164E-05 TNOM=25)


